loratadine
Actelion Java MolfileCreator 1.0

 27 30  0  0  0  0  0  0  0  0999 V2000
    0.0000   -0.0000   -0.0000 Cl  0  0  0  0  0  0  0  0  0  0  0  0
    1.3884    0.5038   -0.0000 C   0  0  0  0  0  0  0  0  0  0  0  0
    2.4328   -0.4546   -0.0000 C   0  0  0  0  0  0  0  0  0  0  0  0
    1.6956    2.0273   -0.0000 C   0  0  0  0  0  0  0  0  0  0  0  0
    3.8212    0.0491   -0.0000 C   0  0  0  0  0  0  0  0  0  0  0  0
    3.0840    2.5311   -0.0000 C   0  0  0  0  0  0  0  0  0  0  0  0
    4.1284    1.5727   -0.0000 C   0  0  0  0  0  0  0  0  0  0  0  0
    4.7059   -1.0690   -0.0000 C   0  0  0  0  0  0  0  0  0  0  0  0
    5.4308    2.2977   -0.0000 C   0  0  0  0  0  0  0  0  0  0  0  0
    6.1681   -1.0198   -0.0000 C   0  0  0  0  0  0  0  0  0  0  0  0
    6.7333    1.6710   -0.0000 C   0  0  0  0  0  0  0  0  0  0  0  0
    5.3817    3.8581   -0.0000 C   0  0  0  0  0  0  0  0  0  0  0  0
    7.0527    0.1966   -0.0000 C   0  0  0  0  0  0  0  0  0  0  0  0
    7.7776    2.7277   -0.0000 N   0  0  0  0  0  0  0  0  0  0  0  0
    4.0301    4.6445   -0.0000 C   0  0  0  0  0  0  0  0  0  0  0  0
    6.6350    4.6445   -0.0000 C   0  0  0  0  0  0  0  0  0  0  0  0
    8.4411   -0.2089   -0.0000 C   0  0  0  0  0  0  0  0  0  0  0  0
    9.1661    2.3222   -0.0000 C   0  0  0  0  0  0  0  0  0  0  0  0
    3.9810    6.2049   -0.0000 C   0  0  0  0  0  0  0  0  0  0  0  0
    6.5858    6.2049   -0.0000 C   0  0  0  0  0  0  0  0  0  0  0  0
    9.4855    0.8478   -0.0000 C   0  0  0  0  0  0  0  0  0  0  0  0
    5.2342    6.9913   -0.0000 N   0  0  0  0  0  0  0  0  0  0  0  0
    5.1851    8.5517   -0.0000 C   0  0  0  0  0  0  0  0  0  0  0  0
    3.8335    9.3381   -0.0000 O   0  0  0  0  0  0  0  0  0  0  0  0
    6.4384    9.3381   -0.0000 O   0  0  0  0  0  0  0  0  0  0  0  0
    6.3892   10.8985   -0.0000 C   0  0  0  0  0  0  0  0  0  0  0  0
    7.6425   11.6849   -0.0000 C   0  0  0  0  0  0  0  0  0  0  0  0
  1  2  1  0  0  0  0
  2  3  2  0  0  0  0
  2  4  1  0  0  0  0
  3  5  1  0  0  0  0
  4  6  2  0  0  0  0
  5  7  2  0  0  0  0
  5  8  1  0  0  0  0
  7  9  1  0  0  0  0
  8 10  1  0  0  0  0
  9 11  1  0  0  0  0
  9 12  2  0  0  0  0
 10 13  1  0  0  0  0
 11 14  2  0  0  0  0
 12 15  1  0  0  0  0
 12 16  1  0  0  0  0
 13 17  2  0  0  0  0
 14 18  1  0  0  0  0
 15 19  1  0  0  0  0
 16 20  1  0  0  0  0
 17 21  1  0  0  0  0
 19 22  1  0  0  0  0
 22 23  1  0  0  0  0
 23 24  2  0  0  0  0
 23 25  1  0  0  0  0
 25 26  1  0  0  0  0
 26 27  1  0  0  0  0
  6  7  1  0  0  0  0
 11 13  1  0  0  0  0
 18 21  2  0  0  0  0
 20 22  1  0  0  0  0
M  END
>  <Molecule Name>
loratadine

>  <NAME>
loratadine

>  <CAS>
79794-75-5

>  <ROLE>
drug substance

>  <ID>
SDFAPI

>  <UNII>
7AJO3BO7QN

>  <APPLICATION NUMBER>
MF012345

>  <NOTES>
Add important information here if needed.

$$$$
2-chloroacetic acid
Actelion Java MolfileCreator 1.0

  5  4  0  0  0  0  0  0  0  0999 V2000
    0.0000   -0.0000   -0.0000 Cl  0  0  0  0  0  0  0  0  0  0  0  0
   -1.3071   -0.7130   -0.0000 C   0  0  0  0  0  0  0  0  0  0  0  0
   -2.6142    0.0475   -0.0000 C   0  0  0  0  0  0  0  0  0  0  0  0
   -2.6618    1.5567   -0.0000 O   0  0  0  0  0  0  0  0  0  0  0  0
   -3.9214   -0.6654   -0.0000 O   0  0  0  0  0  0  0  0  0  0  0  0
  1  2  1  0  0  0  0
  2  3  1  0  0  0  0
  3  4  2  0  0  0  0
  3  5  1  0  0  0  0
M  END
>  <Molecule Name>
2-chloroacetic acid

>  <NAME>
2-chloroacetic acid

>  <CAS>
79-11-8

>  <ROLE>
starting material

>  <ID>
Imp1

>  <UNII>
5GD84Y125G

>  <APPLICATION NUMBER>
MF012345

>  <NOTES>
genetox studies available

$$$$
nitrobenzene
Actelion Java MolfileCreator 1.0

  9  9  0  0  0  0  0  0  0  0999 V2000
    0.0000   -0.0000   -0.0000 O   0  0  0  0  0  0  0  0  0  0  0  0
   -0.0459   -1.4564   -0.0000 N   0  0  0  0  0  0  0  0  0  0  0  0
    1.2156   -2.1330   -0.0000 O   0  0  0  0  0  0  0  0  0  0  0  0
   -1.3991   -2.1330   -0.0000 C   0  0  0  0  0  0  0  0  0  0  0  0
   -2.7522   -1.3188   -0.0000 C   0  0  0  0  0  0  0  0  0  0  0  0
   -1.4449   -3.5894   -0.0000 C   0  0  0  0  0  0  0  0  0  0  0  0
   -4.1054   -1.9954   -0.0000 C   0  0  0  0  0  0  0  0  0  0  0  0
   -2.7981   -4.2660   -0.0000 C   0  0  0  0  0  0  0  0  0  0  0  0
   -4.1513   -3.4518   -0.0000 C   0  0  0  0  0  0  0  0  0  0  0  0
  1  2  2  0  0  0  0
  2  3  1  0  0  0  0
  2  4  1  0  0  0  0
  4  5  2  0  0  0  0
  4  6  1  0  0  0  0
  5  7  1  0  0  0  0
  6  8  2  0  0  0  0
  7  9  2  0  0  0  0
  8  9  1  0  0  0  0
M  CHG  2   2   1   3  -1
M  END
>  <Molecule Name>
nitrobenzene

>  <NAME>
nitrobenzene

>  <CAS>
98-95-3

>  <ROLE>
starting material

>  <ID>
Imp12

>  <UNII>
E57JCN6SSY

>  <APPLICATION NUMBER>
MF012345

>  <NOTES>
genetox studies available

$$$$
anthracene
Actelion Java MolfileCreator 1.0

 14 16  0  0  0  0  0  0  0  0999 V2000
    0.0000   -0.0000   -0.0000 C   0  0  0  0  0  0  0  0  0  0  0  0
   -0.0464   -1.4721   -0.0000 C   0  0  0  0  0  0  0  0  0  0  0  0
    1.2750    0.8230   -0.0000 C   0  0  0  0  0  0  0  0  0  0  0  0
   -1.3678    0.8230   -0.0000 C   0  0  0  0  0  0  0  0  0  0  0  0
    1.2287   -2.1560   -0.0000 C   0  0  0  0  0  0  0  0  0  0  0  0
   -1.4141   -2.1560   -0.0000 C   0  0  0  0  0  0  0  0  0  0  0  0
    2.5501    0.1391   -0.0000 C   0  0  0  0  0  0  0  0  0  0  0  0
   -2.7355    0.1391   -0.0000 C   0  0  0  0  0  0  0  0  0  0  0  0
    2.5037   -1.3330   -0.0000 C   0  0  0  0  0  0  0  0  0  0  0  0
   -2.7819   -1.3330   -0.0000 C   0  0  0  0  0  0  0  0  0  0  0  0
    3.8251    0.9621   -0.0000 C   0  0  0  0  0  0  0  0  0  0  0  0
    3.7788   -2.0169   -0.0000 C   0  0  0  0  0  0  0  0  0  0  0  0
    5.1002    0.2782   -0.0000 C   0  0  0  0  0  0  0  0  0  0  0  0
    5.0538   -1.1939   -0.0000 C   0  0  0  0  0  0  0  0  0  0  0  0
  1  2  2  0  0  0  0
  1  3  1  0  0  0  0
  1  4  1  0  0  0  0
  2  5  1  0  0  0  0
  2  6  1  0  0  0  0
  3  7  2  0  0  0  0
  4  8  2  0  0  0  0
  5  9  2  0  0  0  0
  6 10  2  0  0  0  0
  7 11  1  0  0  0  0
  9 12  1  0  0  0  0
 11 13  2  0  0  0  0
 12 14  2  0  0  0  0
  7  9  1  0  0  0  0
  8 10  1  0  0  0  0
 13 14  1  0  0  0  0
M  END
>  <Molecule Name>
anthracene

>  <NAME>
anthracene

>  <CAS>
120-12-7

>  <ROLE>
process impurity

>  <ID>
CON01

>  <UNII>
EH46A1TLD7

>  <APPLICATION NUMBER>
MF012345

>  <NOTES>
genetox studies available

$$$$
